%%%%%%%%%%%%%%%%%%%%%%%%%%%%%%%%%%%%%%%%%%%%%%%%%%%%%%%%%%%%%%%%%%%%%%%%%%%
%%%%                                                                  %%%%%
%%%%      NICTA Energy System Test Case Archive (NESTA) - v0.6.1      %%%%%
%%%%              Optimal Power Flow - Typical Operation              %%%%%
%%%%                       26 - November - 2016                       %%%%%
%%%%                                                                  %%%%%
%%%%%%%%%%%%%%%%%%%%%%%%%%%%%%%%%%%%%%%%%%%%%%%%%%%%%%%%%%%%%%%%%%%%%%%%%%%
%
%   Power flow data for IEEE 118 bus test case.
%   Please see CASEFORMAT for details on the case file format.
%   (ieee118cdf.txt) on 20-Sep-2004 by cdf2matp, rev. 1.11
%
%   Converted from IEEE CDF file from:
%       http://www.ee.washington.edu/research/pstca/
%   
%   With base_kV data take from the PSAP format file from the same site,
%   added manually on 10-Mar-2006.
%
%   CDF Header:
%   08/25/93 UW ARCHIVE           100.0  1961 W IEEE 118 Bus Test Case
%
function mpc = case118_scopf
mpc.version = '2';
mpc.baseMVA = 100.0;

%% bus data
%	bus_i	type	Pd	Qd	Gs	Bs	area	Vm	Va	baseKV	zone	Vmax	Vmin
mpc.bus = [
	1	 2	 51.0	 27.0	 0.0	 0.0	 1	    1.03313	  -32.79829	 138.0	 1	    1.06000	    0.94000;
	2	 1	 20.0	 9.0	 0.0	 0.0	 1	    1.04476	  -31.43391	 138.0	 1	    1.06000	    0.94000;
	3	 1	 39.0	 10.0	 0.0	 0.0	 1	    1.03885	  -32.29547	 138.0	 1	    1.06000	    0.94000;
	4	 2	 39.0	 12.0	 0.0	 0.0	 1	    1.05719	  -30.64013	 138.0	 1	    1.06000	    0.94000;
	5	 1	 0.0	 0.0	 0.0	 -40.0	 1	    1.05562	  -30.42957	 138.0	 1	    1.06000	    0.94000;
	6	 2	 52.0	 22.0	 0.0	 0.0	 1	    1.05524	  -31.14479	 138.0	 1	    1.06000	    0.94000;
	7	 1	 19.0	 2.0	 0.0	 0.0	 1	    1.05615	  -30.84911	 138.0	 1	    1.06000	    0.94000;
	8	 2	 28.0	 0.0	 0.0	 0.0	 1	    1.04474	  -28.85812	 345.0	 1	    1.06000	    0.94000;
	9	 1	 0.0	 0.0	 0.0	 0.0	 1	    1.06000	  -28.92750	 345.0	 1	    1.06000	    0.94000;
	10	 2	 0.0	 0.0	 0.0	 0.0	 1	    1.03529	  -28.82050	 345.0	 1	    1.06000	    0.94000;
	11	 1	 70.0	 23.0	 0.0	 0.0	 1	    1.05162	  -30.76612	 138.0	 1	    1.06000	    0.94000;
	12	 2	 47.0	 10.0	 0.0	 0.0	 1	    1.05999	  -30.04186	 138.0	 1	    1.06000	    0.94000;
	13	 1	 34.0	 16.0	 0.0	 0.0	 1	    1.03910	  -31.57015	 138.0	 1	    1.06000	    0.94000;
	14	 1	 14.0	 1.0	 0.0	 0.0	 1	    1.05645	  -30.51913	 138.0	 1	    1.06000	    0.94000;
	15	 2	 90.0	 30.0	 0.0	 0.0	 1	    1.04944	  -30.35121	 138.0	 1	    1.06000	    0.94000;
	16	 1	 25.0	 10.0	 0.0	 0.0	 1	    1.05302	  -30.17322	 138.0	 1	    1.06000	    0.94000;
	17	 1	 11.0	 3.0	 0.0	 0.0	 1	    1.06000	  -28.29202	 138.0	 1	    1.06000	    0.94000;
	18	 2	 60.0	 34.0	 0.0	 0.0	 1	    1.05264	  -30.09584	 138.0	 1	    1.06000	    0.94000;
	19	 2	 45.0	 25.0	 0.0	 0.0	 1	    1.04789	  -30.27721	 138.0	 1	    1.06000	    0.94000;
	20	 1	 18.0	 3.0	 0.0	 0.0	 1	    1.03471	  -28.79835	 138.0	 1	    1.06000	    0.94000;
	21	 1	 14.0	 8.0	 0.0	 0.0	 1	    1.02936	  -26.88590	 138.0	 1	    1.06000	    0.94000;
	22	 1	 10.0	 5.0	 0.0	 0.0	 1	    1.03326	  -24.02807	 138.0	 1	    1.06000	    0.94000;
	23	 1	 7.0	 3.0	 0.0	 0.0	 1	    1.05205	  -18.62826	 138.0	 1	    1.06000	    0.94000;
	24	 2	 13.0	 0.0	 0.0	 0.0	 1	    1.05682	  -17.50102	 138.0	 1	    1.06000	    0.94000;
	25	 2	 0.0	 0.0	 0.0	 0.0	 1	    1.06000	  -12.69922	 138.0	 1	    1.06000	    0.94000;
	26	 2	 0.0	 0.0	 0.0	 0.0	 1	    1.02524	  -12.31737	 345.0	 1	    1.06000	    0.94000;
	27	 2	 71.0	 13.0	 0.0	 0.0	 1	    1.04142	  -25.04041	 138.0	 1	    1.06000	    0.94000;
	28	 1	 17.0	 7.0	 0.0	 0.0	 1	    1.03325	  -26.56574	 138.0	 1	    1.06000	    0.94000;
	29	 1	 24.0	 4.0	 0.0	 0.0	 1	    1.03199	  -27.45759	 138.0	 1	    1.06000	    0.94000;
	30	 1	 0.0	 0.0	 0.0	 0.0	 1	    1.02883	  -24.89177	 345.0	 1	    1.06000	    0.94000;
	31	 2	 43.0	 27.0	 0.0	 0.0	 1	    1.03444	  -27.36116	 138.0	 1	    1.06000	    0.94000;
	32	 2	 59.0	 23.0	 0.0	 0.0	 1	    1.04234	  -25.60297	 138.0	 1	    1.06000	    0.94000;
	33	 1	 23.0	 9.0	 0.0	 0.0	 1	    1.04644	  -29.73962	 138.0	 1	    1.06000	    0.94000;
	34	 2	 59.0	 26.0	 0.0	 14.0	 1	    1.05777	  -27.93122	 138.0	 1	    1.06000	    0.94000;
	35	 1	 33.0	 9.0	 0.0	 0.0	 1	    1.05520	  -28.33563	 138.0	 1	    1.06000	    0.94000;
	36	 2	 31.0	 17.0	 0.0	 0.0	 1	    1.05573	  -28.34858	 138.0	 1	    1.06000	    0.94000;
	37	 1	 0.0	 0.0	 0.0	 -25.0	 1	    1.06000	  -27.47810	 138.0	 1	    1.06000	    0.94000;
	38	 1	 0.0	 0.0	 0.0	 0.0	 1	    1.00989	  -23.11262	 345.0	 1	    1.06000	    0.94000;
	39	 1	 27.0	 11.0	 0.0	 0.0	 1	    1.03411	  -29.53573	 138.0	 1	    1.06000	    0.94000;
	40	 2	 66.0	 23.0	 0.0	 0.0	 1	    1.02963	  -29.95140	 138.0	 1	    1.06000	    0.94000;
	41	 1	 37.0	 10.0	 0.0	 0.0	 1	    1.01757	  -29.83569	 138.0	 1	    1.06000	    0.94000;
	42	 2	 96.0	 23.0	 0.0	 0.0	 1	    1.01043	  -26.88647	 138.0	 1	    1.06000	    0.94000;
	43	 1	 18.0	 7.0	 0.0	 0.0	 1	    1.02843	  -26.31390	 138.0	 1	    1.06000	    0.94000;
	44	 1	 16.0	 8.0	 0.0	 10.0	 1	    1.00429	  -21.41768	 138.0	 1	    1.06000	    0.94000;
	45	 1	 53.0	 22.0	 0.0	 10.0	 1	    0.99592	  -18.65546	 138.0	 1	    1.06000	    0.94000;
	46	 2	 28.0	 10.0	 0.0	 10.0	 1	    1.01212	  -15.50406	 138.0	 1	    1.06000	    0.94000;
	47	 1	 34.0	 0.0	 0.0	 0.0	 1	    1.01972	  -11.98215	 138.0	 1	    1.06000	    0.94000;
	48	 1	 20.0	 11.0	 0.0	 15.0	 1	    1.02043	  -13.08165	 138.0	 1	    1.06000	    0.94000;
	49	 2	 87.0	 30.0	 0.0	 0.0	 1	    1.02323	  -11.80917	 138.0	 1	    1.06000	    0.94000;
	50	 1	 17.0	 4.0	 0.0	 0.0	 1	    1.01133	  -15.01813	 138.0	 1	    1.06000	    0.94000;
	51	 1	 17.0	 8.0	 0.0	 0.0	 1	    0.99379	  -19.02717	 138.0	 1	    1.06000	    0.94000;
	52	 1	 18.0	 5.0	 0.0	 0.0	 1	    0.98829	  -20.33167	 138.0	 1	    1.06000	    0.94000;
	53	 1	 23.0	 11.0	 0.0	 0.0	 1	    0.99145	  -22.26595	 138.0	 1	    1.06000	    0.94000;
	54	 2	 113.0	 32.0	 0.0	 0.0	 1	    1.01028	  -22.16971	 138.0	 1	    1.06000	    0.94000;
	55	 2	 63.0	 22.0	 0.0	 0.0	 1	    1.01049	  -22.53067	 138.0	 1	    1.06000	    0.94000;
	56	 2	 84.0	 18.0	 0.0	 0.0	 1	    1.00978	  -22.23337	 138.0	 1	    1.06000	    0.94000;
	57	 1	 12.0	 3.0	 0.0	 0.0	 1	    1.00607	  -19.58747	 138.0	 1	    1.06000	    0.94000;
	58	 1	 12.0	 3.0	 0.0	 0.0	 1	    0.99809	  -20.68386	 138.0	 1	    1.06000	    0.94000;
	59	 2	 277.0	 113.0	 0.0	 0.0	 1	    1.04823	  -20.01733	 138.0	 1	    1.06000	    0.94000;
	60	 1	 78.0	 3.0	 0.0	 0.0	 1	    1.05498	  -15.19733	 138.0	 1	    1.06000	    0.94000;
	61	 2	 0.0	 0.0	 0.0	 0.0	 1	    1.06000	  -14.58431	 138.0	 1	    1.06000	    0.94000;
	62	 2	 77.0	 14.0	 0.0	 0.0	 1	    1.04635	  -13.62156	 138.0	 1	    1.06000	    0.94000;
	63	 1	 0.0	 0.0	 0.0	 0.0	 1	    1.01792	  -15.38992	 345.0	 1	    1.06000	    0.94000;
	64	 1	 0.0	 0.0	 0.0	 0.0	 1	    1.02901	  -12.87730	 345.0	 1	    1.06000	    0.94000;
	65	 2	 0.0	 0.0	 0.0	 0.0	 1	    1.02987	   -6.98042	 345.0	 1	    1.06000	    0.94000;
	66	 2	 39.0	 18.0	 0.0	 0.0	 1	    1.06000	   -2.98216	 138.0	 1	    1.06000	    0.94000;
	67	 1	 28.0	 7.0	 0.0	 0.0	 1	    1.04383	   -8.66117	 138.0	 1	    1.06000	    0.94000;
	68	 1	 0.0	 0.0	 0.0	 0.0	 1	    1.02062	   -5.69946	 345.0	 1	    1.06000	    0.94000;
	69	 3	 0.0	 0.0	 0.0	 0.0	 1	    1.06000	    0.00000	 138.0	 1	    1.06000	    0.94000;
	70	 2	 66.0	 20.0	 0.0	 0.0	 1	    1.03170	  -10.14942	 138.0	 1	    1.06000	    0.94000;
	71	 1	 0.0	 0.0	 0.0	 0.0	 1	    1.03547	  -11.05503	 138.0	 1	    1.06000	    0.94000;
	72	 2	 12.0	 0.0	 0.0	 0.0	 1	    1.04425	  -14.80433	 138.0	 1	    1.06000	    0.94000;
	73	 2	 6.0	 0.0	 0.0	 0.0	 1	    1.03745	  -11.22651	 138.0	 1	    1.06000	    0.94000;
	74	 2	 68.0	 27.0	 0.0	 12.0	 1	    1.01048	  -10.62644	 138.0	 1	    1.06000	    0.94000;
	75	 1	 47.0	 11.0	 0.0	 0.0	 1	    1.01395	   -9.25550	 138.0	 1	    1.06000	    0.94000;
	76	 2	 68.0	 36.0	 0.0	 0.0	 1	    0.99960	  -10.91934	 138.0	 1	    1.06000	    0.94000;
	77	 2	 61.0	 28.0	 0.0	 0.0	 1	    1.04410	   -6.87285	 138.0	 1	    1.06000	    0.94000;
	78	 1	 71.0	 26.0	 0.0	 0.0	 1	    1.03970	   -7.20945	 138.0	 1	    1.06000	    0.94000;
	79	 1	 39.0	 32.0	 0.0	 20.0	 1	    1.04174	   -7.04886	 138.0	 1	    1.06000	    0.94000;
	80	 2	 130.0	 26.0	 0.0	 0.0	 1	    1.06000	   -5.24129	 138.0	 1	    1.06000	    0.94000;
	81	 1	 0.0	 0.0	 0.0	 0.0	 1	    1.01451	   -5.50728	 345.0	 1	    1.06000	    0.94000;
	82	 1	 54.0	 27.0	 0.0	 20.0	 1	    1.03483	   -7.93386	 138.0	 1	    1.06000	    0.94000;
	83	 1	 20.0	 10.0	 0.0	 10.0	 1	    1.03737	   -7.34853	 138.0	 1	    1.06000	    0.94000;
	84	 1	 11.0	 7.0	 0.0	 0.0	 1	    1.04085	   -5.87420	 138.0	 1	    1.06000	    0.94000;
	85	 2	 24.0	 15.0	 0.0	 0.0	 1	    1.04907	   -4.87492	 138.0	 1	    1.06000	    0.94000;
	86	 1	 21.0	 10.0	 0.0	 0.0	 1	    1.04208	   -6.23523	 138.0	 1	    1.06000	    0.94000;
	87	 2	 0.0	 0.0	 0.0	 0.0	 1	    1.05481	   -6.33068	 161.0	 1	    1.06000	    0.94000;
	88	 1	 48.0	 10.0	 0.0	 0.0	 1	    1.04735	   -2.48518	 138.0	 1	    1.06000	    0.94000;
	89	 2	 0.0	 0.0	 0.0	 0.0	 1	    1.06000	    0.87743	 138.0	 1	    1.06000	    0.94000;
	90	 2	 163.0	 42.0	 0.0	 0.0	 1	    1.05126	   -4.87373	 138.0	 1	    1.06000	    0.94000;
	91	 2	 10.0	 0.0	 0.0	 0.0	 1	    1.04436	   -4.73340	 138.0	 1	    1.06000	    0.94000;
	92	 2	 65.0	 10.0	 0.0	 0.0	 1	    1.04495	   -3.97188	 138.0	 1	    1.06000	    0.94000;
	93	 1	 12.0	 7.0	 0.0	 0.0	 1	    1.03499	   -6.20851	 138.0	 1	    1.06000	    0.94000;
	94	 1	 30.0	 16.0	 0.0	 0.0	 1	    1.03344	   -7.74757	 138.0	 1	    1.06000	    0.94000;
	95	 1	 42.0	 31.0	 0.0	 0.0	 1	    1.02300	   -8.24044	 138.0	 1	    1.06000	    0.94000;
	96	 1	 38.0	 15.0	 0.0	 0.0	 1	    1.03266	   -7.88686	 138.0	 1	    1.06000	    0.94000;
	97	 1	 15.0	 9.0	 0.0	 0.0	 1	    1.04162	   -6.91133	 138.0	 1	    1.06000	    0.94000;
	98	 1	 34.0	 8.0	 0.0	 0.0	 1	    1.04955	   -7.70927	 138.0	 1	    1.06000	    0.94000;
	99	 2	 42.0	 0.0	 0.0	 0.0	 1	    1.05160	   -9.04319	 138.0	 1	    1.06000	    0.94000;
	100	 2	 37.0	 18.0	 0.0	 0.0	 1	    1.05328	   -8.74860	 138.0	 1	    1.06000	    0.94000;
	101	 1	 22.0	 15.0	 0.0	 0.0	 1	    1.03690	   -7.50844	 138.0	 1	    1.06000	    0.94000;
	102	 1	 5.0	 3.0	 0.0	 0.0	 1	    1.04121	   -5.23894	 138.0	 1	    1.06000	    0.94000;
	103	 2	 23.0	 16.0	 0.0	 0.0	 1	    1.05037	  -11.59117	 138.0	 1	    1.06000	    0.94000;
	104	 2	 38.0	 25.0	 0.0	 0.0	 1	    1.03709	  -14.87455	 138.0	 1	    1.06000	    0.94000;
	105	 2	 31.0	 26.0	 0.0	 20.0	 1	    1.03457	  -16.04051	 138.0	 1	    1.06000	    0.94000;
	106	 1	 43.0	 16.0	 0.0	 0.0	 1	    1.02649	  -16.17588	 138.0	 1	    1.06000	    0.94000;
	107	 2	 50.0	 12.0	 0.0	 6.0	 1	    1.02208	  -18.68691	 138.0	 1	    1.06000	    0.94000;
	108	 1	 2.0	 1.0	 0.0	 0.0	 1	    1.02796	  -17.58242	 138.0	 1	    1.06000	    0.94000;
	109	 1	 8.0	 3.0	 0.0	 0.0	 1	    1.02564	  -18.18553	 138.0	 1	    1.06000	    0.94000;
	110	 2	 39.0	 30.0	 0.0	 6.0	 1	    1.02320	  -19.47936	 138.0	 1	    1.06000	    0.94000;
	111	 2	 0.0	 0.0	 0.0	 0.0	 1	    1.02631	  -19.53009	 138.0	 1	    1.06000	    0.94000;
	112	 2	 68.0	 13.0	 0.0	 0.0	 1	    1.00975	  -21.98346	 138.0	 1	    1.06000	    0.94000;
	113	 2	 6.0	 0.0	 0.0	 0.0	 1	    1.05698	  -28.02777	 138.0	 1	    1.06000	    0.94000;
	114	 1	 8.0	 3.0	 0.0	 0.0	 1	    1.03742	  -25.85113	 138.0	 1	    1.06000	    0.94000;
	115	 1	 22.0	 7.0	 0.0	 0.0	 1	    1.03697	  -25.85161	 138.0	 1	    1.06000	    0.94000;
	116	 2	 184.0	 0.0	 0.0	 0.0	 1	    1.01953	   -6.10767	 138.0	 1	    1.06000	    0.94000;
	117	 1	 20.0	 8.0	 0.0	 0.0	 1	    1.04531	  -31.38704	 138.0	 1	    1.06000	    0.94000;
	118	 1	 33.0	 15.0	 0.0	 0.0	 1	    1.00105	  -10.44914	 138.0	 1	    1.06000	    0.94000;
];
%% load data
%column_names%	load_bus	pref	qref status	qmax	qmin pmax	pmin prated qrated voll
% mpc.load = [
%     1	51	27	1	27	0	51	0	51	27	5000;
%     2	20	9	1	9	0	20	0	20	9	5000;
%     3	39	10	1	10	0	39	0	39	10	5000;
%     4	39	12	1	12	0	39	0	39	12	5000;
%     5	0	0	1	0	0	0	0	0	0	5000;
%     6	52	22	1	22	0	52	0	52	22	5000;
%     7	19	2	1	2	0	19	0	19	2	5000;
%     8	28	0	1	0	0	28	0	28	0	5000;
%     9	0	0	1	0	0	0	0	0	0	5000;
%     10	0	0	1	0	0	0	0	0	0	5000;
%     11	70	23	1	23	0	70	0	70	23	5000;
%     12	47	10	1	10	0	47	0	47	10	5000;
%     13	34	16	1	16	0	34	0	34	16	5000;
%     14	14	1	1	1	0	14	0	14	1	5000;
%     15	90	30	1	30	0	90	0	90	30	5000;
%     16	25	10	1	10	0	25	0	25	10	5000;
%     17	11	3	1	3	0	11	0	11	3	5000;
%     18	60	34	1	34	0	60	0	60	34	5000;
%     19	45	25	1	25	0	45	0	45	25	5000;
%     20	18	3	1	3	0	18	0	18	3	5000;
%     21	14	8	1	8	0	14	0	14	8	5000;
%     22	10	5	1	5	0	10	0	10	5	5000;
%     23	7	3	1	3	0	7	0	7	3	5000;
%     24	13	0	1	0	0	13	0	13	0	5000;
%     25	0	0	1	0	0	0	0	0	0	5000;
%     26	0	0	1	0	0	0	0	0	0	5000;
%     27	71	13	1	13	0	71	0	71	13	5000;
%     28	17	7	1	7	0	17	0	17	7	5000;
%     29	24	4	1	4	0	24	0	24	4	5000;
%     30	0	0	1	0	0	0	0	0	0	5000;
%     31	43	27	1	27	0	43	0	43	27	5000;
%     32	59	23	1	23	0	59	0	59	23	5000;
%     33	23	9	1	9	0	23	0	23	9	5000;
%     34	59	26	1	26	0	59	0	59	26	5000;
%     35	33	9	1	9	0	33	0	33	9	5000;
%     36	31	17	1	17	0	31	0	31	17	5000;
%     37	0	0	1	0	0	0	0	0	0	5000;
%     38	0	0	1	0	0	0	0	0	0	5000;
%     39	27	11	1	11	0	27	0	27	11	5000;
%     40	66	23	1	23	0	66	0	66	23	5000;
%     41	37	10	1	10	0	37	0	37	10	5000;
%     42	96	23	1	23	0	96	0	96	23	5000;
%     43	18	7	1	7	0	18	0	18	7	5000;
%     44	16	8	1	8	0	16	0	16	8	5000;
%     45	53	22	1	22	0	53	0	53	22	5000;
%     46	28	10	1	10	0	28	0	28	10	5000;
%     47	34	0	1	0	0	34	0	34	0	5000;
%     48	20	11	1	11	0	20	0	20	11	5000;
%     49	87	30	1	30	0	87	0	87	30	5000;
%     50	17	4	1	4	0	17	0	17	4	5000;
%     51	17	8	1	8	0	17	0	17	8	5000;
%     52	18	5	1	5	0	18	0	18	5	5000;
%     53	23	11	1	11	0	23	0	23	11	5000;
%     54	113	32	1	32	0	113	0	113	32	5000;
%     55	63	22	1	22	0	63	0	63	22	5000;
%     56	84	18	1	18	0	84	0	84	18	5000;
%     57	12	3	1	3	0	12	0	12	3	5000;
%     58	12	3	1	3	0	12	0	12	3	5000;
%     59	277	113	1	113	0	277	0	277	113	5000;
%     60	78	3	1	3	0	78	0	78	3	5000;
%     61	0	0	1	0	0	0	0	0	0	5000;
%     62	77	14	1	14	0	77	0	77	14	5000;
%     63	0	0	1	0	0	0	0	0	0	5000;
%     64	0	0	1	0	0	0	0	0	0	5000;
%     65	0	0	1	0	0	0	0	0	0	5000;
%     66	39	18	1	18	0	39	0	39	18	5000;
%     67	28	7	1	7	0	28	0	28	7	5000;
%     68	0	0	1	0	0	0	0	0	0	5000;
%     69	0	0	1	0	0	0	0	0	0	5000;
%     70	66	20	1	20	0	66	0	66	20	5000;
%     71	0	0	1	0	0	0	0	0	0	5000;
%     72	12	0	1	0	0	12	0	12	0	5000;
%     73	6	0	1	0	0	6	0	6	0	5000;
%     74	68	27	1	27	0	68	0	68	27	5000;
%     75	47	11	1	11	0	47	0	47	11	5000;
%     76	68	36	1	36	0	68	0	68	36	5000;
%     77	61	28	1	28	0	61	0	61	28	5000;
%     78	71	26	1	26	0	71	0	71	26	5000;
%     79	39	32	1	32	0	39	0	39	32	5000;
%     80	130	26	1	26	0	130	0	130	26	5000;
%     81	0	0	1	0	0	0	0	0	0	5000;
%     82	54	27	1	27	0	54	0	54	27	5000;
%     83	20	10	1	10	0	20	0	20	10	5000;
%     84	11	7	1	7	0	11	0	11	7	5000;
%     85	24	15	1	15	0	24	0	24	15	5000;
%     86	21	10	1	10	0	21	0	21	10	5000;
%     87	0	0	1	0	0	0	0	0	0	5000;
%     88	48	10	1	10	0	48	0	48	10	5000;
%     89	0	0	1	0	0	0	0	0	0	5000;
%     90	163	42	1	42	0	163	0	163	42	5000;
%     91	10	0	1	0	0	10	0	10	0	5000;
%     92	65	10	1	10	0	65	0	65	10	5000;
%     93	12	7	1	7	0	12	0	12	7	5000;
%     94	30	16	1	16	0	30	0	30	16	5000;
%     95	42	31	1	31	0	42	0	42	31	5000;
%     96	38	15	1	15	0	38	0	38	15	5000;
%     97	15	9	1	9	0	15	0	15	9	5000;
%     98	34	8	1	8	0	34	0	34	8	5000;
%     99	42	0	1	0	0	42	0	42	0	5000;
%     100	37	18	1	18	0	37	0	37	18	5000;
%     101	22	15	1	15	0	22	0	22	15	5000;
%     102	5	3	1	3	0	5	0	5	3	5000;
%     103	23	16	1	16	0	23	0	23	16	5000;
%     104	38	25	1	25	0	38	0	38	25	5000;
%     105	31	26	1	26	0	31	0	31	26	5000;
%     106	43	16	1	16	0	43	0	43	16	5000;
%     107	50	12	1	12	0	50	0	50	12	5000;
%     108	2	1	1	1	0	2	0	2	1	5000;
%     109	8	3	1	3	0	8	0	8	3	5000;
%     110	39	30	1	30	0	39	0	39	30	5000;
%     111	0	0	1	0	0	0	0	0	0	5000;
%     112	68	13	1	13	0	68	0	68	13	5000;
%     113	6	0	1	0	0	6	0	6	0	5000;
%     114	8	3	1	3	0	8	0	8	3	5000;
%     115	22	7	1	7	0	22	0	22	7	5000;
%     116	184	0	1	0	0	184	0	184	0	5000;
%     117	20	8	1	8	0	20	0	20	8	5000;
%     118	33	15	1	15	0	33	0	33	15	5000;
%     ];

%column_names%	load_bus	pref	qref status	qmax	qmin pmax	pmin prated qrated voll
mpc.load = [
1	51	27	1	27	0	51	51	51	27	5000;
2	20	9	1	9	0	20	20	20	9	5000;
3	39	10	1	10	0	39	39	39	10	5000;
4	39	12	1	12	0	39	39	39	12	5000;
5	0	0	1	0	0	0	0	0	0	5000;
6	52	22	1	22	0	52	52	52	22	5000;
7	19	2	1	2	0	19	19	19	2	5000;
8	28	0	1	0	0	28	28	28	0	5000;
9	0	0	1	0	0	0	0	0	0	5000;
10	0	0	1	0	0	0	0	0	0	5000;
11	70	23	1	23	0	70	70	70	23	5000;
12	47	10	1	10	0	47	47	47	10	5000;
13	34	16	1	16	0	34	34	34	16	5000;
14	14	1	1	1	0	14	14	14	1	5000;
15	90	30	1	30	0	90	90	90	30	5000;
16	25	10	1	10	0	25	25	25	10	5000;
17	11	3	1	3	0	11	11	11	3	5000;
18	60	34	1	34	0	60	60	60	34	5000;
19	45	25	1	25	0	45	45	45	25	5000;
20	18	3	1	3	0	18	18	18	3	5000;
21	14	8	1	8	0	14	14	14	8	5000;
22	10	5	1	5	0	10	10	10	5	5000;
23	7	3	1	3	0	7	7	7	3	5000;
24	13	0	1	0	0	13	13	13	0	5000;
25	0	0	1	0	0	0	0	0	0	5000;
26	0	0	1	0	0	0	0	0	0	5000;
27	71	13	1	13	0	71	71	71	13	5000;
28	17	7	1	7	0	17	17	17	7	5000;
29	24	4	1	4	0	24	24	24	4	5000;
30	0	0	1	0	0	0	0	0	0	5000;
31	43	27	1	27	0	43	43	43	27	5000;
32	59	23	1	23	0	59	59	59	23	5000;
33	23	9	1	9	0	23	23	23	9	5000;
34	59	26	1	26	0	59	59	59	26	5000;
35	33	9	1	9	0	33	33	33	9	5000;
36	31	17	1	17	0	31	31	31	17	5000;
37	0	0	1	0	0	0	0	0	0	5000;
38	0	0	1	0	0	0	0	0	0	5000;
39	27	11	1	11	0	27	27	27	11	5000;
40	66	23	1	23	0	66	66	66	23	5000;
41	37	10	1	10	0	37	37	37	10	5000;
42	96	23	1	23	0	96	96	96	23	5000;
43	18	7	1	7	0	18	18	18	7	5000;
44	16	8	1	8	0	16	16	16	8	5000;
45	53	22	1	22	0	53	53	53	22	5000;
46	28	10	1	10	0	28	28	28	10	5000;
47	34	0	1	0	0	34	34	34	0	5000;
48	20	11	1	11	0	20	20	20	11	5000;
49	87	30	1	30	0	87	87	87	30	5000;
50	17	4	1	4	0	17	17	17	4	5000;
51	17	8	1	8	0	17	17	17	8	5000;
52	18	5	1	5	0	18	18	18	5	5000;
53	23	11	1	11	0	23	23	23	11	5000;
54	113	32	1	32	0	113	113	113	32	5000;
55	63	22	1	22	0	63	63	63	22	5000;
56	84	18	1	18	0	84	84	84	18	5000;
57	12	3	1	3	0	12	12	12	3	5000;
58	12	3	1	3	0	12	12	12	3	5000;
59	277	113	1	113	0	277	277	277	113	5000;
60	78	3	1	3	0	78	78	78	3	5000;
61	0	0	1	0	0	0	0	0	0	5000;
62	77	14	1	14	0	77	77	77	14	5000;
63	0	0	1	0	0	0	0	0	0	5000;
64	0	0	1	0	0	0	0	0	0	5000;
65	0	0	1	0	0	0	0	0	0	5000;
66	39	18	1	18	0	39	39	39	18	5000;
67	28	7	1	7	0	28	28	28	7	5000;
68	0	0	1	0	0	0	0	0	0	5000;
69	0	0	1	0	0	0	0	0	0	5000;
70	66	20	1	20	0	66	66	66	20	5000;
71	0	0	1	0	0	0	0	0	0	5000;
72	12	0	1	0	0	12	12	12	0	5000;
73	6	0	1	0	0	6	6	6	0	5000;
74	68	27	1	27	0	68	68	68	27	5000;
75	47	11	1	11	0	47	47	47	11	5000;
76	68	36	1	36	0	68	68	68	36	5000;
77	61	28	1	28	0	61	61	61	28	5000;
78	71	26	1	26	0	71	71	71	26	5000;
79	39	32	1	32	0	39	39	39	32	5000;
80	130	26	1	26	0	130	130	130	26	5000;
81	0	0	1	0	0	0	0	0	0	5000;
82	54	27	1	27	0	54	54	54	27	5000;
83	20	10	1	10	0	20	20	20	10	5000;
84	11	7	1	7	0	11	11	11	7	5000;
85	24	15	1	15	0	24	24	24	15	5000;
86	21	10	1	10	0	21	21	21	10	5000;
87	0	0	1	0	0	0	0	0	0	5000;
88	48	10	1	10	0	48	48	48	10	5000;
89	0	0	1	0	0	0	0	0	0	5000;
90	163	42	1	42	0	163	163	163	42	5000;
91	10	0	1	0	0	10	10	10	0	5000;
92	65	10	1	10	0	65	65	65	10	5000;
93	12	7	1	7	0	12	12	12	7	5000;
94	30	16	1	16	0	30	30	30	16	5000;
95	42	31	1	31	0	42	42	42	31	5000;
96	38	15	1	15	0	38	38	38	15	5000;
97	15	9	1	9	0	15	15	15	9	5000;
98	34	8	1	8	0	34	34	34	8	5000;
99	42	0	1	0	0	42	42	42	0	5000;
100	37	18	1	18	0	37	37	37	18	5000;
101	22	15	1	15	0	22	22	22	15	5000;
102	5	3	1	3	0	5	5	5	3	5000;
103	23	16	1	16	0	23	23	23	16	5000;
104	38	25	1	25	0	38	38	38	25	5000;
105	31	26	1	26	0	31	31	31	26	5000;
106	43	16	1	16	0	43	43	43	16	5000;
107	50	12	1	12	0	50	50	50	12	5000;
108	2	1	1	1	0	2	2	2	1	5000;
109	8	3	1	3	0	8	8	8	3	5000;
110	39	30	1	30	0	39	39	39	30	5000;
111	0	0	1	0	0	0	0	0	0	5000;
112	68	13	1	13	0	68	68	68	13	5000;
113	6	0	1	0	0	6	6	6	0	5000;
114	8	3	1	3	0	8	8	8	3	5000;
115	22	7	1	7	0	22	22	22	7	5000;
116	184	0	1	0	0	184	184	184	0	5000;
117	20	8	1	8	0	20	20	20	8	5000;
118	33	15	1	15	0	33	33	33	15	5000;
];

%% generator data
%	bus	Pg	Qg	Qmax	Qmin	Vg	mBase	status	Pmax	Pmin	Pc1	Pc2	Qc1min	Qc1max	Qc2min	Qc2max	ramp_agc	ramp_10	ramp_30	ramp_q	apf
mpc.gen = [
1	0	14.9997417255247	15	-5	1.03288369946984	100	1	0	0	0	0	0	0	0	0	0	0	0	0	0	1.24844800435941	0	0.00859136172144137	0;
4	0	48.0270218683761	300	-300	1.05695012382517	100	1	0	0	0	0	0	0	0	0	0	0	0	0	0	1.21793523850317	0	0	0;
6	0	27.1880857018100	50	-13	1.05499580425794	100	1	0	0	0	0	0	0	0	0	0	0	0	0	0	1.22335689938984	0	0	0;
8	0	-71.6682405352844	300	-300	1.04466682405503	100	1	0	0	0	0	0	0	0	0	0	0	0	0	0	1.21290118016473	0	0	0;
10	8.86071568344016e-06	-145.123394030959	200	-147	1.03536771828475	100	1	663	0	0	0	0	0	0	0	0	0	0	0	0	0	0.250612149624416	0	0;
12	286.999993156386	57.5003395511161	120	-35	1.05973944054506	100	1	287	0	0	0	0	0	0	0	0	0	0	0	0	0.323752692295418	0	0	0;
15	0	29.9942990485805	30	-10	1.04940836749001	100	1	0	0	0	0	0	0	0	0	0	0	0	0	0	1.23025666700981	0	0.00149476263972702	0;
18	0	43.4842966485054	50	-16	1.05267783100213	100	1	0	0	0	0	0	0	0	0	0	0	0	0	0	1.22514524876027	0	0	0;
19	0	23.9986608004092	24	-8	1.04788669601264	100	1	0	0	0	0	0	0	0	0	0	0	0	0	0	1.23087181065147	0	0.00221758848196707	0;
24	0	9.36215790837624	300	-300	1.05681894894829	100	1	0	0	0	0	0	0	0	0	0	0	0	0	0	1.12455966442146	0	0	0;
25	266.999987550377	-46.9997605040253	134	-47	1.05999996179115	100	1	267	0	0	0	0	0	0	0	0	0	0	0	0	0.178253297700177	0	0	0.00937191736763971;
26	286.792939498662	-25.0598375854770	226	-226	1.02523576433431	100	1	451	0	0	0	0	0	0	0	0	0	0	0	0	0	0	0	0;
27	0	30.4924451513644	300	-300	1.04144000209556	100	1	0	0	0	0	0	0	0	0	0	0	0	0	0	1.19350168232165	0	0	0;
31	22.9999944080875	11.9994201377314	12	-12	1.03445766187313	100	1	23	0	0	0	0	0	0	0	0	0	0	0	0	0.397288046413249	0	0.00505725631804230	0;
32	0	35.9955105267097	42	-14	1.04236567171749	100	1	0	0	0	0	0	0	0	0	0	0	0	0	0	1.19733908170910	0	0	0;
34	0	23.9998142046791	24	-8	1.05774922366741	100	1	0	0	0	0	0	0	0	0	0	0	0	0	0	1.22060548968399	0	0.00943165250919168	0;
36	0	23.9998222354178	24	-8	1.05569982463604	100	1	0	0	0	0	0	0	0	0	0	0	0	0	0	1.22499774233106	0	0.00995128661362497	0;
40	0	49.9243479935188	300	-300	1.02959961799499	100	1	0	0	0	0	0	0	0	0	0	0	0	0	0	1.30163159775808	0	0	0;
42	0	26.3190858449638	300	-300	1.01040066581342	100	1	0	0	0	0	0	0	0	0	0	0	0	0	0	1.32237136628673	0	0	0;
46	1.05193460988788e-05	7.71995680986653	26	-26	1.01211143247386	100	1	51	0	0	0	0	0	0	0	0	0	0	0	0	0	0.210557078358170	0	0;
49	231.999989293540	-11.0636550417525	116	-85	1.02322304072397	100	1	232	0	0	0	0	0	0	0	0	0	0	0	0	0.207413586808980	0	0	0;
54	3.97148408283752e-05	55.7905020286754	75	-75	1.01030823522666	100	1	150	0	0	0	0	0	0	0	0	0	0	0	0	0	0.0556029515191602	0	0;
55	0	22.9977061881480	23	-8	1.01051257238627	100	1	0	0	0	0	0	0	0	0	0	0	0	0	0	1.26358026733824	0	0.00146380253230816	0;
56	0	14.9968467913789	15	-8	1.00980383652585	100	1	0	0	0	0	0	0	0	0	0	0	0	0	0	1.26631259273624	0	0	0;
59	7.24166752665161e-06	140.999716910516	141	-60	1.04824020941918	100	1	282	0	0	0	0	0	0	0	0	0	0	0	0	0	0.305881613671974	0.0104037889214038	0;
61	1.03062279179409e-05	124.391093326423	126	-100	1.05999985743989	100	1	251	0	0	0	0	0	0	0	0	0	0	0	0	0	0.214790885177788	0	0;
62	0	-19.7847244444268	20	-20	1.04639459108837	100	1	0	0	0	0	0	0	0	0	0	0	0	0	0	1.00974104885317	0	0	0;
65	295.353980426645	119.758384391229	200	-67	1.02986509519456	100	1	608	0	0	0	0	0	0	0	0	0	0	0	0	0	0	0	0;
66	829.461138674558	-66.9999484333984	200	-67	1.05999997121113	100	1	865	0	0	0	0	0	0	0	0	0	0	0	0	0	0	0	0.0439390963463592;
69	880.999995292750	-114.499398075079	300	-300	1.05999997725914	100	1	881	0	0	0	0	0	0	0	0	0	0	0	0	0.471400767471870	0	0	0;
70	0	31.9990449186736	32	-10	1.03170086765134	100	1	0	0	0	0	0	0	0	0	0	0	0	0	0	1.08539374844583	0	0.00246809807332319	0;
72	0	-1.83538915763558	100	-100	1.04424751090098	100	1	0	0	0	0	0	0	0	0	0	0	0	0	0	1.11286968972446	0	0	0
73	0	5.03658464452433	100	-100	1.03744707964232	100	1	0	0	0	0	0	0	0	0	0	0	0	0	0	1.09197021091226	0	0	0
74	0	8.99978993414160	9	-6	1.01047857270712	100	1	0	0	0	0	0	0	0	0	0	0	0	0	0	1.09560881366347	0	0.0106525627918897	0;
76	0	22.9998669140759	23	-8	0.999595939249165	100	1	0	0	0	0	0	0	0	0	0	0	0	0	0	1.09276177940132	0	0.0167449810075151	0;
77	0	69.9989828171801	70	-20	1.04410294711087	100	1	0	0	0	0	0	0	0	0	0	0	0	0	0	1.02952379781969	0	0.00218630408960811	0;
80	445.773015434727	-0.203740114231859	280	-165	1.05999986881372	100	1	739	0	0	0	0	0	0	0	0	0	0	0	0	0	0	0	0;
85	0	22.9998696583627	23	-8	1.04906666850228	100	1	0	0	0	0	0	0	0	0	0	0	0	0	0	0.886497795718862	0	0.0169195006981392	0;
87	4.61026159022512e-06	3.99984435729711	4	-4	1.05481336448442	100	1	7	0	0	0	0	0	0	0	0	0	0	0	0	0	0.481678177131928	0.0140780248285474	0;
89	568.006174778810	-31.5618896595727	300	-210	1.05999995920182	100	1	845	0	0	0	0	0	0	0	0	0	0	0	0	0	0	0	0;
90	0	76.2129632358894	300	-300	1.05125611369805	100	1	0	0	0	0	0	0	0	0	0	0	0	0	0	0.888889380549321	0	0	0;
91	0	-8.92468094997580	100	-100	1.04436121264209	100	1	0	0	0	0	0	0	0	0	0	0	0	0	0	0.957802785257935	0	0	0;
92	0	-2.99913339851926	9	-3	1.04495131124305	100	1	0	0	0	0	0	0	0	0	0	0	0	0	0	1.05654774525677	0	0	0.00252168234350669;
99	0	-0.197135510538153	100	-100	1.05160277956836	100	1	0	0	0	0	0	0	0	0	0	0	0	0	0	1.05987428624847	0	0	0;
100	186.388253896434	49.8154657011957	151	-50	1.05328008751790	100	1	301	0	0	0	0	0	0	0	0	0	0	0	0	0	0	0	0
103	97.9999945290567	29.9782682651573	40	-15	1.05037248550051	100	1	98	0	0	0	0	0	0	0	0	0	0	0	0	0.405745630001528	0	0	0;
104	0	22.9934955498827	23	-8	1.03707781338136	100	1	0	0	0	0	0	0	0	0	0	0	0	0	0	1.12873564924603	0	0.00139667325494156	0;
105	0	22.9553835237027	23	-8	1.03455274456496	100	1	0	0	0	0	0	0	0	0	0	0	0	0	0	1.14105132371377	0	0	0;
107	0	7.01988276955098	200	-200	1.02207426444085	100	1	0	0	0	0	0	0	0	0	0	0	0	0	0	1.17190932274677	0	0	0;
110	0	22.9986168840287	23	-8	1.02319321282162	100	1	0	0	0	0	0	0	0	0	0	0	0	0	0	1.17895861797322	0	0.00208936602433251	0;
111	9.81873410053662e-05	3.17606488116643	67	-67	1.02630415962014	100	1	133	0	0	0	0	0	0	0	0	0	0	0	0	0	0.0219266049270711	0	0;
112	0	16.4020683978294	1000	-100	1.00974179505731	100	1	0	0	0	0	0	0	0	0	0	0	0	0	0	1.21871290892915	0	0	0;
113	0	-3.79997987172122	200	-100	1.05702448475848	100	1	0	0	0	0	0	0	0	0	0	0	0	0	0	1.20326883287322	0	0	0;
116	0	-19.8802030330715	1000	-1000	1.01952244228330	100	1	0	0	0	0	0	0	0	0	0	0	0	0	0	0.980488745738085	0	0	0;
];

%column_names% prated qrated pref qref
mpc.gen_rated = [
    0	15	0	15;
    0	300	0	48.4100000000000;
    0	50	0	27.2540000000000;
    0	300	0	-71.8670000000000;
    663	200	0	-145.350000000000;
    287	120	287	57.8300000000000;
    0	30	0	30;
    0	50	0	43.3310000000000;
    0	24	0	24;
    0	300	0	9.36500000000000;
    267	134	267	-47;
    451	226	286.801000000000	-25.0580000000000;
    0	300	0	30.4800000000000;
    23	12	23	12;
    0	42	0	35.9790000000000;
    0	24	0	24;
    0	24	0	24;
    0	300	0	49.9430000000000;
    0	300	0	26.3210000000000;
    51	26	0	7.72000000000000;
    232	116	232	-11.0100000000000;
    150	75	0	55.7060000000000;
    0	23	0	23;
    0	15	0	15;
    282	141	0	141;
    251	126	0	124.577000000000;
    0	20	0	-19.9990000000000;
    608	200	295.338000000000	119.802000000000;
    865	200	829.470000000000	-67;
    881	300	881	-114.523000000000;
    0	32	0	32;
    0	100	0	-1.83500000000000;
    0	100	0	5.03600000000000;
    0	9	0	9;
    0	23	0	23;
    0	70	0	70;
    739	280	445.771000000000	-0.216000000000000;
    0	23	0	23;
    7	4	0	4;
    845	300	568.006000000000	-31.5640000000000;
    0	300	0	76.2140000000000;
    0	100	0	-8.92300000000000;
    0	9	0	-3;
    0	100	0	-0.197000000000000;
    301	151	186.388000000000	49.8030000000000;
    98	40	98	29.9590000000000;
    0	23	0	23;
    0	23	0	23;
    0	200	0	7.00500000000000;
    0	23	0	23;
    133	67	0	3.17300000000000;
    0	1000	0	16.3990000000000;
    0	200	0	-3.98400000000000;
    0	1000	0	-19.8640000000000  
];

%% generator cost data
%	2	startup	shutdown	n	c(n-1)	...	c0
mpc.gencost = [
	2	 0.0	 0.0	 3	   0.000000	   0.000000	   0.000000; % SYNC
	2	 0.0	 0.0	 3	   0.000000	   0.000000	   0.000000; % SYNC
	2	 0.0	 0.0	 3	   0.000000	   0.000000	   0.000000; % SYNC
	2	 0.0	 0.0	 3	   0.000000	   0.000000	   0.000000; % SYNC
	2	 0.0	 0.0	 3	   0.000000	   1.463389	   0.000000; % NG
	2	 0.0	 0.0	 3	   0.000000	   0.889054	   0.000000; % NG
	2	 0.0	 0.0	 3	   0.000000	   0.000000	   0.000000; % SYNC
	2	 0.0	 0.0	 3	   0.000000	   0.000000	   0.000000; % SYNC
	2	 0.0	 0.0	 3	   0.000000	   0.000000	   0.000000; % SYNC
	2	 0.0	 0.0	 3	   0.000000	   0.000000	   0.000000; % SYNC
	2	 0.0	 0.0	 3	   0.000000	   0.929688	   0.000000; % NG
	2	 0.0	 0.0	 3	   0.000000	   1.118121	   0.000000; % NG
	2	 0.0	 0.0	 3	   0.000000	   0.000000	   0.000000; % SYNC
	2	 0.0	 0.0	 3	   0.000000	   0.814446	   0.000000; % NG
	2	 0.0	 0.0	 3	   0.000000	   0.000000	   0.000000; % SYNC
	2	 0.0	 0.0	 3	   0.000000	   0.000000	   0.000000; % SYNC
	2	 0.0	 0.0	 3	   0.000000	   0.000000	   0.000000; % SYNC
	2	 0.0	 0.0	 3	   0.000000	   0.000000	   0.000000; % SYNC
	2	 0.0	 0.0	 3	   0.000000	   0.000000	   0.000000; % SYNC
	2	 0.0	 0.0	 3	   0.000000	   1.513792	   0.000000; % NG
	2	 0.0	 0.0	 3	   0.000000	   1.071413	   0.000000; % NG
	2	 0.0	 0.0	 3	   0.000000	   1.324712	   0.000000; % NG
	2	 0.0	 0.0	 3	   0.000000	   0.000000	   0.000000; % SYNC
	2	 0.0	 0.0	 3	   0.000000	   0.000000	   0.000000; % SYNC
	2	 0.0	 0.0	 3	   0.000000	   1.426207	   0.000000; % NG
	2	 0.0	 0.0	 3	   0.000000	   1.245208	   0.000000; % NG
	2	 0.0	 0.0	 3	   0.000000	   0.000000	   0.000000; % SYNC
	2	 0.0	 0.0	 3	   0.000000	   0.969762	   0.000000; % NG
	2	 0.0	 0.0	 3	   0.000000	   0.865713	   0.000000; % COW
	2	 0.0	 0.0	 3	   0.000000	   0.518513	   0.000000; % COW
	2	 0.0	 0.0	 3	   0.000000	   0.000000	   0.000000; % SYNC